Version 4
SHEET 1 2296 680
WIRE 144 -144 -64 -144
WIRE 784 -144 144 -144
WIRE 1472 -144 784 -144
WIRE 1856 -144 1472 -144
WIRE 2080 -144 1856 -144
WIRE 2240 -144 2080 -144
WIRE 144 -112 144 -144
WIRE 1568 16 1376 16
WIRE 144 32 144 -32
WIRE 368 32 144 32
WIRE 1376 48 1376 16
WIRE 368 80 368 32
WIRE -64 96 -64 -144
WIRE 144 96 144 32
WIRE 2240 112 2240 -144
WIRE 864 128 672 128
WIRE 1856 144 1856 -144
WIRE 1472 192 1472 -144
WIRE 2080 192 2080 -144
WIRE 784 208 784 -144
WIRE 1376 208 1376 128
WIRE 1440 208 1376 208
WIRE -64 224 -64 176
WIRE 144 224 144 160
WIRE 672 224 672 128
WIRE 752 224 672 224
WIRE 1568 224 1568 16
WIRE 1568 224 1504 224
WIRE 1616 224 1568 224
WIRE 1760 224 1696 224
WIRE 1808 224 1760 224
WIRE 2240 224 2240 176
WIRE 368 240 368 160
WIRE 368 240 304 240
WIRE 432 240 368 240
WIRE 864 240 864 128
WIRE 864 240 816 240
WIRE 944 240 864 240
WIRE 1072 240 1024 240
WIRE 1152 240 1072 240
WIRE 1280 240 1232 240
WIRE 1440 240 1280 240
WIRE 432 256 432 240
WIRE 752 256 432 256
WIRE 432 272 432 256
WIRE 544 272 432 272
WIRE 1760 272 1760 224
WIRE 2032 272 1760 272
WIRE 1072 304 1072 240
WIRE 1280 304 1280 240
WIRE 1472 304 1472 256
WIRE 432 320 432 272
WIRE 784 320 784 272
WIRE 544 336 544 272
WIRE 1856 336 1856 240
WIRE 2080 336 2080 288
WIRE 2080 336 1856 336
WIRE 304 352 304 240
WIRE 1376 384 1376 208
WIRE 1584 384 1376 384
WIRE 1856 384 1856 336
WIRE 1856 384 1664 384
WIRE 1072 400 1072 368
WIRE 1280 400 1280 368
WIRE 256 432 160 432
WIRE 1856 432 1856 384
WIRE 432 448 432 400
WIRE 544 448 544 400
WIRE 160 480 160 432
WIRE 304 512 304 448
WIRE 1856 560 1856 512
WIRE 160 624 160 560
FLAG -64 224 0
FLAG 144 224 0
FLAG 160 624 0
FLAG 304 512 0
FLAG 432 448 0
FLAG 544 448 0
FLAG 784 320 0
FLAG 1472 304 0
FLAG 1856 560 0
FLAG 2240 224 0
FLAG 1072 400 0
FLAG 1280 400 0
SYMBOL voltage -64 80 R0
WINDOW 123 0 0 Left 2
WINDOW 39 0 0 Left 2
SYMATTR InstName V1
SYMATTR Value 4.5
SYMBOL res 352 64 R0
SYMATTR InstName R1
SYMATTR Value 0.1
SYMBOL res 416 304 R0
SYMATTR InstName R2
SYMATTR Value 100k
SYMBOL cap 528 336 R0
SYMATTR InstName C1
SYMATTR Value 100p
SYMBOL nmos 256 352 R0
SYMATTR InstName M1
SYMATTR Value 2N7002
SYMBOL voltage 160 464 R0
WINDOW 123 0 0 Left 2
WINDOW 39 0 0 Left 2
SYMATTR InstName V3
SYMATTR Value PULSE(0 3.3 0 0.1u 0.1u 9.75u 10u)
SYMBOL Opamps\\LTC6240 784 240 R0
SYMATTR InstName U1
SYMBOL Opamps\\LTC6240 1472 224 R0
SYMATTR InstName U2
SYMBOL res 1040 224 R90
WINDOW 0 0 56 VBottom 2
WINDOW 3 32 56 VTop 2
SYMATTR InstName R3
SYMATTR Value 1k
SYMBOL res 1248 224 R90
WINDOW 0 0 56 VBottom 2
WINDOW 3 32 56 VTop 2
SYMATTR InstName R4
SYMATTR Value 100
SYMBOL res 1680 368 R90
WINDOW 0 0 56 VBottom 2
WINDOW 3 32 56 VTop 2
SYMATTR InstName R5
SYMATTR Value 100
SYMBOL res 1840 416 R0
SYMATTR InstName R6
SYMATTR Value 0.3
SYMBOL res 1712 208 R90
WINDOW 0 0 56 VBottom 2
WINDOW 3 32 56 VTop 2
SYMATTR InstName R7
SYMATTR Value 0.1
SYMBOL nmos 1808 144 R0
SYMATTR InstName M2
SYMATTR Value RTR025N03
SYMBOL cap 2224 112 R0
SYMATTR InstName C2
SYMATTR Value 44µ
SYMATTR SpiceLine Rser=0.015
SYMBOL cap 1056 304 R0
SYMATTR InstName C3
SYMATTR Value 2.2µ
SYMBOL cap 1264 304 R0
SYMATTR InstName C4
SYMATTR Value 2.2µ
SYMBOL nmos 2032 192 R0
SYMATTR InstName M3
SYMATTR Value RTR025N03
SYMBOL References\\LT1634-1.25 144 128 R0
SYMATTR InstName U3
SYMBOL res 128 -128 R0
SYMATTR InstName R8
SYMATTR Value 1k
TEXT -96 648 Left 2 !.tran 0 25m 0 0.01u startup
